  Page 1                                    Tue Jan  2 20:56:24 2024

  ******************************************************************
  *                           E P A N E T                          *
  *                   Hydraulic and Water Quality                  *
  *                   Analysis for Pipe Networks                   *
  *                         Version 2.3                            *
  ******************************************************************
  
  Analysis begun Tue Jan  2 20:56:24 2024

   
  Hydraulic Status:
  -----------------------------------------------------------------------
     0:00:00: Balanced after 4 trials
     0:00:00: Reservoir 5 is emptying
   
  Analysis ended Tue Jan  2 20:56:24 2024

   
  Node Results:
  ----------------------------------------------
                     Demand      Head  Pressure
  Node                  L/s         m         m
  ----------------------------------------------
  1                   10.00     10.10     10.10
  2                   10.00     39.28     39.28
  3                   10.00     30.10     30.10
  4                   10.00     19.08     19.08
  5                  -40.00     60.00     -0.00  Reservoir
   
   
  Link Results:
  ----------------------------------------------
                       Flow  Velocity  Headloss
  Link                  L/s       m/s    /1000m
  ----------------------------------------------
  1                  -10.00      2.92    291.79
  2                    3.49      1.45     91.84
  3                   10.00      2.03    110.22
  4                   23.49      3.19    207.19
  5                  -16.51      3.35    299.03
   